  
       XFOIL         Version 6.99
  
 Calculated polar for: NACA 4412                                       
  
 1 1 Reynolds number fixed          Mach number fixed         
  
 xtrf =   1.000 (top)        1.000 (bottom)  
 Mach =   0.000     Re =     0.200 e 6     Ncrit =   9.000
  
   alpha    CL        CD       CDp       CM     Top_Xtr  Bot_Xtr
  ------ -------- --------- --------- -------- -------- --------
   0.000   0.4879   0.01002   0.00438  -0.1078   0.7661   1.0000
   0.250   0.5131   0.01009   0.00432  -0.1071   0.7523   1.0000
   0.500   0.5386   0.01018   0.00429  -0.1065   0.7387   1.0000
   0.750   0.5645   0.01029   0.00426  -0.1060   0.7255   1.0000
   1.000   0.5908   0.01040   0.00425  -0.1055   0.7130   1.0000
   1.250   0.6176   0.01054   0.00424  -0.1051   0.7012   1.0000
   1.500   0.6432   0.01068   0.00430  -0.1045   0.6881   1.0000
   1.750   0.6691   0.01084   0.00437  -0.1041   0.6758   1.0000
   2.000   0.6956   0.01101   0.00444  -0.1037   0.6645   1.0000
   2.250   0.7222   0.01119   0.00452  -0.1033   0.6538   1.0000
   2.500   0.7480   0.01138   0.00466  -0.1029   0.6423   1.0000
   2.750   0.7745   0.01158   0.00479  -0.1026   0.6323   1.0000
   3.000   0.8010   0.01178   0.00491  -0.1022   0.6223   1.0000
   3.250   0.8270   0.01200   0.00510  -0.1018   0.6121   1.0000
   3.500   0.8541   0.01223   0.00524  -0.1016   0.6034   1.0000
   3.750   0.8796   0.01243   0.00547  -0.1012   0.5933   1.0000
   4.000   0.9062   0.01268   0.00565  -0.1009   0.5846   1.0000
   4.250   0.9321   0.01290   0.00586  -0.1005   0.5752   1.0000
   4.500   0.9581   0.01315   0.00611  -0.1001   0.5663   1.0000
   4.750   0.9843   0.01338   0.00631  -0.0998   0.5574   1.0000
   5.000   1.0097   0.01363   0.00658  -0.0993   0.5480   1.0000
   5.250   1.0363   0.01389   0.00679  -0.0990   0.5394   1.0000
   5.500   1.0606   0.01412   0.00708  -0.0984   0.5291   1.0000
   5.750   1.0860   0.01437   0.00732  -0.0979   0.5196   1.0000
   6.000   1.1105   0.01459   0.00755  -0.0972   0.5087   1.0000
   6.250   1.1340   0.01481   0.00781  -0.0964   0.4967   1.0000
   6.500   1.1575   0.01503   0.00803  -0.0955   0.4845   1.0000
   6.750   1.1809   0.01527   0.00825  -0.0946   0.4722   1.0000
   7.000   1.2033   0.01549   0.00849  -0.0936   0.4592   1.0000
   7.250   1.2250   0.01571   0.00878  -0.0925   0.4456   1.0000
   7.500   1.2464   0.01596   0.00908  -0.0913   0.4317   1.0000
   7.750   1.2673   0.01622   0.00938  -0.0901   0.4170   1.0000
   8.000   1.2873   0.01650   0.00969  -0.0887   0.4010   1.0000
   8.250   1.3063   0.01680   0.01002  -0.0871   0.3834   1.0000
   8.500   1.3237   0.01717   0.01038  -0.0853   0.3641   1.0000
   8.750   1.3399   0.01760   0.01081  -0.0833   0.3415   1.0000
   9.000   1.3530   0.01818   0.01132  -0.0809   0.3163   1.0000
   9.250   1.3636   0.01889   0.01194  -0.0782   0.2867   1.0000
   9.500   1.3690   0.01977   0.01270  -0.0747   0.2552   1.0000
   9.750   1.3724   0.02089   0.01366  -0.0711   0.2199   1.0000
  10.000   1.3722   0.02233   0.01489  -0.0673   0.1843   1.0000
  10.250   1.3702   0.02402   0.01637  -0.0636   0.1532   1.0000
  10.500   1.3690   0.02580   0.01800  -0.0603   0.1284   1.0000
  10.750   1.3670   0.02773   0.01982  -0.0572   0.1117   1.0000
  11.000   1.3657   0.02973   0.02177  -0.0544   0.0994   1.0000
  11.250   1.3669   0.03165   0.02370  -0.0522   0.0898   1.0000
  11.500   1.3680   0.03367   0.02576  -0.0501   0.0826   1.0000
  11.750   1.3659   0.03603   0.02810  -0.0480   0.0771   1.0000
  12.000   1.3688   0.03809   0.03024  -0.0464   0.0721   1.0000
   0.000   0.4879   0.01002   0.00438  -0.1078   0.7661   1.0000
   0.250   0.5131   0.01009   0.00432  -0.1071   0.7523   1.0000
   0.500   0.5386   0.01018   0.00429  -0.1065   0.7387   1.0000
   0.750   0.5645   0.01029   0.00426  -0.1060   0.7255   1.0000
   1.000   0.5908   0.01040   0.00425  -0.1055   0.7130   1.0000
   1.250   0.6176   0.01054   0.00424  -0.1051   0.7012   1.0000
   1.500   0.6432   0.01068   0.00430  -0.1045   0.6881   1.0000
   1.750   0.6691   0.01084   0.00437  -0.1041   0.6758   1.0000
   2.000   0.6956   0.01101   0.00444  -0.1037   0.6645   1.0000
   2.250   0.7222   0.01119   0.00452  -0.1033   0.6538   1.0000
   2.500   0.7480   0.01138   0.00466  -0.1029   0.6423   1.0000
   2.750   0.7745   0.01158   0.00479  -0.1026   0.6323   1.0000
   3.000   0.8010   0.01178   0.00491  -0.1022   0.6223   1.0000
   3.250   0.8270   0.01200   0.00510  -0.1018   0.6121   1.0000
   3.500   0.8541   0.01223   0.00524  -0.1016   0.6034   1.0000
   3.750   0.8796   0.01243   0.00547  -0.1012   0.5933   1.0000
   4.000   0.9062   0.01268   0.00565  -0.1009   0.5846   1.0000
   4.250   0.9321   0.01290   0.00586  -0.1005   0.5752   1.0000
   4.500   0.9581   0.01315   0.00611  -0.1001   0.5663   1.0000
   4.750   0.9843   0.01338   0.00631  -0.0998   0.5574   1.0000
   5.000   1.0097   0.01363   0.00658  -0.0993   0.5480   1.0000
   5.250   1.0363   0.01389   0.00679  -0.0990   0.5394   1.0000
   5.500   1.0606   0.01412   0.00708  -0.0984   0.5291   1.0000
   5.750   1.0860   0.01437   0.00732  -0.0979   0.5196   1.0000
   6.000   1.1105   0.01459   0.00755  -0.0972   0.5087   1.0000
   6.250   1.1340   0.01481   0.00781  -0.0964   0.4967   1.0000
   6.500   1.1575   0.01503   0.00803  -0.0955   0.4845   1.0000
   6.750   1.1809   0.01527   0.00825  -0.0946   0.4722   1.0000
   7.000   1.2033   0.01549   0.00849  -0.0936   0.4592   1.0000
   7.250   1.2250   0.01571   0.00878  -0.0925   0.4456   1.0000
   7.500   1.2464   0.01596   0.00908  -0.0913   0.4317   1.0000
   7.750   1.2673   0.01622   0.00938  -0.0901   0.4170   1.0000
   8.000   1.2873   0.01650   0.00969  -0.0887   0.4010   1.0000
   8.250   1.3063   0.01680   0.01002  -0.0871   0.3834   1.0000
   8.500   1.3237   0.01717   0.01038  -0.0853   0.3641   1.0000
   8.750   1.3399   0.01760   0.01081  -0.0833   0.3415   1.0000
   9.000   1.3530   0.01818   0.01132  -0.0809   0.3163   1.0000
   9.250   1.3636   0.01889   0.01194  -0.0782   0.2867   1.0000
   9.500   1.3690   0.01977   0.01270  -0.0747   0.2552   1.0000
   9.750   1.3724   0.02089   0.01366  -0.0711   0.2199   1.0000
  10.000   1.3722   0.02233   0.01489  -0.0673   0.1843   1.0000
  10.250   1.3702   0.02402   0.01637  -0.0636   0.1532   1.0000
  10.500   1.3690   0.02580   0.01800  -0.0603   0.1284   1.0000
  10.750   1.3670   0.02773   0.01982  -0.0572   0.1117   1.0000
  11.000   1.3657   0.02973   0.02177  -0.0544   0.0994   1.0000
  11.250   1.3669   0.03165   0.02370  -0.0522   0.0898   1.0000
  11.500   1.3680   0.03367   0.02576  -0.0501   0.0826   1.0000
  11.750   1.3659   0.03603   0.02810  -0.0480   0.0771   1.0000
  12.000   1.3688   0.03809   0.03024  -0.0464   0.0721   1.0000
